powsybl-network-store-server/network-store-integration-test/src/test/resources/BrranchConnectedInOneVLOnlyIssue.uct
##C 2007.05.01
TEST case for UCTE import issue in PowSyBl core package
When a branch equipment has these 2 sides connected to the same voltage level, the VL only provides one side to the equipments visitors
contact : slimane.amar@rte-france.com

##N
##ZFR
F1TEST11 1TEST77 1    0 0        0.15546 72.7296 0.00000 0.00000 
FTESTU11 TESTUP7 1-2  0 0        0.00000 0.00000 0.00000 0.00000 

##L
FTESTU11 F1TEST11 1 0 0.7140 12.186 212.0000   3780 TESTU711TEST

##T
F1TEST11 FTESTU11 1 0 380.0 380.0 1186. 0.1280 44.280 0.000000 0.0000   1803 TESTUY771   

